Version 4.1
SHEET 1 880 680
WIRE 656 -64 64 -64
WIRE 64 48 64 -64
WIRE 656 48 656 16
WIRE 656 160 656 128
WIRE 64 176 64 128
WIRE 528 176 64 176
WIRE 528 224 528 176
WIRE 656 224 528 224
FLAG 64 176 0
SYMBOL voltage 64 32 R0
WINDOW 123 0 0 Left 0
WINDOW 39 0 0 Left 0
SYMATTR InstName V1
SYMATTR Value PULSE(-6 6 0 0.001m 0.001m 300m 600m)
SYMBOL res 640 -80 R0
SYMATTR InstName R1
SYMATTR Value 60
SYMBOL ind 640 32 R0
SYMATTR InstName L1
SYMATTR Value 1.44
SYMATTR SpiceLine Rser=0
SYMBOL cap 640 160 R0
SYMATTR InstName C1
SYMATTR Value 100µ
TEXT 24 240 Left 2 !.tran 600m
