Version 4.1
SHEET 1 880 680
WIRE 112 96 -48 96
WIRE 304 96 192 96
WIRE 464 96 384 96
WIRE -48 144 -48 96
WIRE 464 144 464 96
WIRE -48 272 -48 224
WIRE 464 272 464 208
WIRE 464 272 -48 272
FLAG -48 272 0
SYMBOL voltage -48 128 R0
WINDOW 123 0 0 Left 0
WINDOW 39 0 0 Left 0
SYMATTR InstName V1
SYMATTR Value PULSE(-6 6 0 0.001m 0.001m 250m 500m)
SYMBOL res 208 80 R90
WINDOW 0 0 56 VBottom 2
WINDOW 3 32 56 VTop 2
SYMATTR InstName R1
SYMATTR Value 60
SYMBOL cap 480 208 R180
WINDOW 0 24 56 Left 2
WINDOW 3 24 8 Left 2
SYMATTR InstName C1
SYMATTR Value 100µ
SYMBOL ind 288 112 R270
WINDOW 0 32 56 VTop 2
WINDOW 3 5 56 VBottom 2
SYMATTR InstName L1
SYMATTR Value 1.44
SYMATTR SpiceLine Rser=0
TEXT -32 296 Left 2 !.tran 500m
