Version 4.1
SHEET 1 880 680
WIRE 272 -16 -96 -16
WIRE 272 144 272 64
WIRE -96 160 -96 -16
WIRE 272 272 272 224
WIRE -96 336 -96 240
WIRE 48 336 -96 336
WIRE 272 336 48 336
FLAG 48 336 0
SYMBOL voltage -96 144 R0
WINDOW 123 0 0 Left 0
WINDOW 39 0 0 Left 0
SYMATTR InstName V1
SYMATTR Value SINE(0 15.556 222.085 0 0 30)
SYMBOL ind 256 128 R0
SYMATTR InstName L1
SYMATTR Value 21.422m
SYMATTR SpiceLine Rser=15
SYMBOL res 256 -32 R0
SYMATTR InstName R2
SYMATTR Value 29
SYMBOL cap 256 272 R0
SYMATTR InstName C1
SYMATTR Value 23.974µ
TEXT -96 384 Left 2 !.tran 0 0.03 0 0.01m
